FoamFile{version 2.0;format ascii;class volScalarField;location 0;object psiE;}

dimensions [1 2 -3 0 0 -1 0];

internalField uniform 0;

boundaryField
{
  top
  {
    type zeroGradient;
  }
  bottom
  {
    type zeroGradient;
  }
  bc0
  {
    type zeroGradient;
  }
  bc1
  {
    type fixedValue; value uniform 1.;//type zeroGradient;
  }
  bc2
  {
    type zeroGradient;
  }
  bc3
  {
    type fixedValue; value uniform -1.; //type zeroGradient;
  }
}